<?xml version="1.0" encoding="UTF-8"?>

<!-- generated on 2025-09-07 20:59:10 by Eclipse SUMO sumo Version 1.24.0
-->

<sumoConfiguration xmlns:xsi="http://www.w3.org/2001/XMLSchema-instance" xsi:noNamespaceSchemaLocation="http://sumo.dlr.de/xsd/sumoConfiguration.xsd">

    <input>
        <net-file value="network.net.xml"/>
        <route-files value="Config.rou.xml"/>
    </input>

</sumoConfiguration>
