<?xml version="1.0" encoding="UTF-8"?>

<!-- generated on 2025-09-07 20:24:16 by Eclipse SUMO netedit Version 1.24.0
<neteditConfiguration xmlns:xsi="http://www.w3.org/2001/XMLSchema-instance" xsi:noNamespaceSchemaLocation="http://sumo.dlr.de/xsd/neteditConfiguration.xsd">

    <input>
        <sumocfg-file value="D:\Projects\Python Projects\Config.sumocfg"/>
        <route-files value="D:\Projects\Python Projects\Config.rou.xml"/>
        <sumo-net-file value="D:\Projects\Python Projects\network.net.xml"/>
    </input>

    <output>
        <output-file value="D:\Projects\Python Projects\network.net.xml"/>
    </output>

    <processing>
        <offset.disable-normalization value="true"/>
    </processing>

    <junctions>
        <no-turnarounds value="true"/>
    </junctions>

    <netedit>
        <new-network value="false"/>
    </netedit>

</neteditConfiguration>
-->

<net version="1.20" junctionCornerDetail="5" limitTurnSpeed="5.50" xmlns:xsi="http://www.w3.org/2001/XMLSchema-instance" xsi:noNamespaceSchemaLocation="http://sumo.dlr.de/xsd/net_file.xsd">

    <location netOffset="0.00,0.00" convBoundary="-100.00,100.00,400.00,300.00" origBoundary="10000000000.00,10000000000.00,-10000000000.00,-10000000000.00" projParameter="!"/>

    <edge id=":J10_0" function="internal">
        <lane id=":J10_0_0" index="0" speed="13.89" length="19.24" shape="107.20,301.60 103.21,301.05 99.11,299.41 94.90,296.67 90.58,292.84"/>
    </edge>
    <edge id=":J10_1" function="internal">
        <lane id=":J10_1_0" index="0" speed="8.94" length="4.59" shape="107.20,301.60 103.35,300.77 102.87,300.33"/>
    </edge>
    <edge id=":J10_6" function="internal">
        <lane id=":J10_6_0" index="0" speed="8.94" length="13.40" shape="102.87,300.33 100.60,298.27 98.95,294.10 98.40,288.27"/>
    </edge>
    <edge id=":J10_2" function="internal">
        <lane id=":J10_2_0" index="0" speed="7.65" length="12.89" shape="101.60,288.27 101.95,292.70 103.00,295.87 104.75,297.77 107.20,298.40"/>
    </edge>
    <edge id=":J10_3" function="internal">
        <lane id=":J10_3_0" index="0" speed="7.42" length="19.31" shape="101.60,288.27 100.91,294.41 98.84,297.21 95.40,296.69 90.58,292.84"/>
    </edge>
    <edge id=":J10_4" function="internal">
        <lane id=":J10_4_0" index="0" speed="5.47" length="9.74" shape="92.84,290.58 95.27,292.52 97.01,292.78 98.05,291.37 98.40,288.27"/>
    </edge>
    <edge id=":J10_5" function="internal">
        <lane id=":J10_5_0" index="0" speed="13.42" length="16.74" shape="92.84,290.58 96.67,294.00 100.34,296.44 103.85,297.91 107.20,298.40"/>
    </edge>
    <edge id=":J11_0" function="internal">
        <lane id=":J11_0_0" index="0" speed="6.51" length="9.03" shape="98.40,207.20 98.05,204.75 97.00,203.00 95.25,201.95 92.80,201.60"/>
    </edge>
    <edge id=":J11_1" function="internal">
        <lane id=":J11_1_0" index="0" speed="13.89" length="14.40" shape="98.40,207.20 98.40,192.80"/>
    </edge>
    <edge id=":J11_2" function="internal">
        <lane id=":J11_2_0" index="0" speed="8.00" length="4.07" shape="98.40,207.20 98.95,203.35 99.04,203.20"/>
    </edge>
    <edge id=":J11_3" function="internal">
        <lane id=":J11_3_0" index="0" speed="7.80" length="2.96" shape="98.40,207.20 99.13,204.33"/>
    </edge>
    <edge id=":J11_20" function="internal">
        <lane id=":J11_20_0" index="0" speed="8.00" length="10.13" shape="99.04,203.20 100.60,200.60 103.35,198.95 107.20,198.40"/>
    </edge>
    <edge id=":J11_21" function="internal">
        <lane id=":J11_21_0" index="0" speed="7.80" length="10.48" shape="99.13,204.33 99.19,204.07 101.24,201.24 104.07,199.19 107.20,198.40"/>
    </edge>
    <edge id=":J11_4" function="internal">
        <lane id=":J11_4_0" index="0" speed="6.51" length="9.03" shape="107.20,201.60 104.75,201.95 103.00,203.00 101.95,204.75 101.60,207.20"/>
    </edge>
    <edge id=":J11_5" function="internal">
        <lane id=":J11_5_0" index="0" speed="13.89" length="14.40" shape="107.20,201.60 92.80,201.60"/>
    </edge>
    <edge id=":J11_6" function="internal">
        <lane id=":J11_6_0" index="0" speed="8.00" length="14.19" shape="107.20,201.60 103.35,201.05 100.60,199.40 98.95,196.65 98.40,192.80"/>
    </edge>
    <edge id=":J11_7" function="internal">
        <lane id=":J11_7_0" index="0" speed="3.24" length="3.20" shape="107.20,201.60 107.20,198.40"/>
    </edge>
    <edge id=":J11_8" function="internal">
        <lane id=":J11_8_0" index="0" speed="6.51" length="9.03" shape="107.20,201.60 104.75,201.95 103.00,203.00 101.95,204.75 101.60,207.20"/>
    </edge>
    <edge id=":J11_9" function="internal">
        <lane id=":J11_9_0" index="0" speed="13.89" length="14.40" shape="107.20,201.60 92.80,201.60"/>
    </edge>
    <edge id=":J11_10" function="internal">
        <lane id=":J11_10_0" index="0" speed="7.80" length="2.96" shape="107.20,201.60 104.33,200.87"/>
    </edge>
    <edge id=":J11_11" function="internal">
        <lane id=":J11_11_0" index="0" speed="3.24" length="1.60" shape="107.20,201.60 107.20,200.00"/>
    </edge>
    <edge id=":J11_22" function="internal">
        <lane id=":J11_22_0" index="0" speed="7.80" length="10.48" shape="104.33,200.87 104.07,200.81 101.24,198.76 99.19,195.93 98.40,192.80"/>
    </edge>
    <edge id=":J11_23" function="internal">
        <lane id=":J11_23_0" index="0" speed="3.24" length="1.60" shape="107.20,200.00 107.20,198.40"/>
    </edge>
    <edge id=":J11_12" function="internal">
        <lane id=":J11_12_0" index="0" speed="6.51" length="9.03" shape="101.60,192.80 101.95,195.25 103.00,197.00 104.75,198.05 107.20,198.40"/>
    </edge>
    <edge id=":J11_13" function="internal">
        <lane id=":J11_13_0" index="0" speed="6.51" length="9.03" shape="101.60,192.80 101.95,195.25 103.00,197.00 104.75,198.05 107.20,198.40"/>
    </edge>
    <edge id=":J11_14" function="internal">
        <lane id=":J11_14_0" index="0" speed="13.89" length="14.40" shape="101.60,192.80 101.60,207.20"/>
    </edge>
    <edge id=":J11_15" function="internal">
        <lane id=":J11_15_0" index="0" speed="8.00" length="4.07" shape="101.60,192.80 101.05,196.65 100.96,196.80"/>
    </edge>
    <edge id=":J11_24" function="internal">
        <lane id=":J11_24_0" index="0" speed="8.00" length="10.13" shape="100.96,196.80 99.40,199.40 96.65,201.05 92.80,201.60"/>
    </edge>
    <edge id=":J11_16" function="internal">
        <lane id=":J11_16_0" index="0" speed="6.51" length="9.03" shape="92.80,198.40 95.25,198.05 97.00,197.00 98.05,195.25 98.40,192.80"/>
    </edge>
    <edge id=":J11_17" function="internal">
        <lane id=":J11_17_0" index="0" speed="13.89" length="14.40" shape="92.80,198.40 107.20,198.40"/>
    </edge>
    <edge id=":J11_18" function="internal">
        <lane id=":J11_18_0" index="0" speed="13.89" length="14.40" shape="92.80,198.40 107.20,198.40"/>
    </edge>
    <edge id=":J11_19" function="internal">
        <lane id=":J11_19_0" index="0" speed="8.00" length="4.07" shape="92.80,198.40 96.65,198.95 96.80,199.04"/>
    </edge>
    <edge id=":J11_25" function="internal">
        <lane id=":J11_25_0" index="0" speed="8.00" length="10.13" shape="96.80,199.04 99.40,200.60 101.05,203.35 101.60,207.20"/>
    </edge>
    <edge id=":J12_0" function="internal">
        <lane id=":J12_0_0" index="0" speed="13.89" length="0.10" shape="200.00,201.60 200.00,201.60"/>
    </edge>
    <edge id=":J12_1" function="internal">
        <lane id=":J12_1_0" index="0" speed="13.89" length="0.10" shape="200.00,198.40 200.00,198.40"/>
    </edge>
    <edge id=":J13_0" function="internal">
        <lane id=":J13_0_0" index="0" speed="9.73" length="21.49" shape="7.16,209.42 3.63,204.71 2.45,200.00 3.63,195.29 7.16,190.58"/>
    </edge>
    <edge id=":J13_1" function="internal">
        <lane id=":J13_1_0" index="0" speed="7.42" length="9.49" shape="7.16,209.42 3.31,204.60 2.81,201.32"/>
    </edge>
    <edge id=":J13_6" function="internal">
        <lane id=":J13_6_0" index="0" speed="7.42" length="9.82" shape="2.81,201.32 2.79,201.16 5.59,199.09 11.73,198.40"/>
    </edge>
    <edge id=":J13_2" function="internal">
        <lane id=":J13_2_0" index="0" speed="5.47" length="9.74" shape="11.73,201.60 8.63,201.95 7.22,202.99 7.48,204.73 9.42,207.16"/>
    </edge>
    <edge id=":J13_3" function="internal">
        <lane id=":J13_3_0" index="0" speed="7.42" length="19.31" shape="11.73,201.60 5.59,200.91 2.79,198.84 3.31,195.40 7.16,190.58"/>
    </edge>
    <edge id=":J13_4" function="internal">
        <lane id=":J13_4_0" index="0" speed="5.47" length="9.74" shape="9.42,192.84 7.48,195.27 7.22,197.01 8.63,198.05 11.73,198.40"/>
    </edge>
    <edge id=":J13_5" function="internal">
        <lane id=":J13_5_0" index="0" speed="8.54" length="16.33" shape="9.42,192.84 6.74,196.42 5.84,200.00 6.74,203.58 9.42,207.16"/>
    </edge>
    <edge id=":J14_0" function="internal">
        <lane id=":J14_0_0" index="0" speed="5.47" length="9.74" shape="98.40,111.73 98.05,108.63 97.01,107.22 95.27,107.48 92.84,109.42"/>
    </edge>
    <edge id=":J14_1" function="internal">
        <lane id=":J14_1_0" index="0" speed="8.94" length="17.99" shape="98.40,111.73 98.95,105.90 100.60,101.73 103.35,99.23 107.20,98.40"/>
    </edge>
    <edge id=":J14_2" function="internal">
        <lane id=":J14_2_0" index="0" speed="7.65" length="12.89" shape="107.20,101.60 104.75,102.23 103.00,104.13 101.95,107.30 101.60,111.73"/>
    </edge>
    <edge id=":J14_3" function="internal">
        <lane id=":J14_3_0" index="0" speed="13.42" length="16.74" shape="107.20,101.60 103.85,102.09 100.34,103.56 96.67,106.00 92.84,109.42"/>
    </edge>
    <edge id=":J14_4" function="internal">
        <lane id=":J14_4_0" index="0" speed="13.89" length="19.24" shape="90.58,107.16 94.90,103.33 99.11,100.59 103.21,98.95 107.20,98.40"/>
    </edge>
    <edge id=":J14_5" function="internal">
        <lane id=":J14_5_0" index="0" speed="7.42" length="6.93" shape="90.58,107.16 95.40,103.31 96.15,103.20"/>
    </edge>
    <edge id=":J14_6" function="internal">
        <lane id=":J14_6_0" index="0" speed="7.42" length="12.37" shape="96.15,103.20 98.84,102.79 100.91,105.59 101.60,111.73"/>
    </edge>
    <edge id=":J15_0" function="internal">
        <lane id=":J15_0_0" index="0" speed="6.51" length="9.03" shape="298.40,207.20 298.05,204.75 297.00,203.00 295.25,201.95 292.80,201.60"/>
    </edge>
    <edge id=":J15_1" function="internal">
        <lane id=":J15_1_0" index="0" speed="6.51" length="9.03" shape="298.40,207.20 298.05,204.75 297.00,203.00 295.25,201.95 292.80,201.60"/>
    </edge>
    <edge id=":J15_2" function="internal">
        <lane id=":J15_2_0" index="0" speed="13.89" length="14.40" shape="298.40,207.20 298.40,192.80"/>
    </edge>
    <edge id=":J15_3" function="internal">
        <lane id=":J15_3_0" index="0" speed="8.00" length="4.07" shape="298.40,207.20 298.95,203.35 299.04,203.20"/>
    </edge>
    <edge id=":J15_20" function="internal">
        <lane id=":J15_20_0" index="0" speed="8.00" length="10.13" shape="299.04,203.20 300.60,200.60 303.35,198.95 307.20,198.40"/>
    </edge>
    <edge id=":J15_4" function="internal">
        <lane id=":J15_4_0" index="0" speed="6.51" length="9.03" shape="307.20,201.60 304.75,201.95 303.00,203.00 301.95,204.75 301.60,207.20"/>
    </edge>
    <edge id=":J15_5" function="internal">
        <lane id=":J15_5_0" index="0" speed="13.89" length="14.40" shape="307.20,201.60 292.80,201.60"/>
    </edge>
    <edge id=":J15_6" function="internal">
        <lane id=":J15_6_0" index="0" speed="13.89" length="14.40" shape="307.20,201.60 292.80,201.60"/>
    </edge>
    <edge id=":J15_7" function="internal">
        <lane id=":J15_7_0" index="0" speed="8.00" length="4.07" shape="307.20,201.60 303.35,201.05 303.20,200.96"/>
    </edge>
    <edge id=":J15_21" function="internal">
        <lane id=":J15_21_0" index="0" speed="8.00" length="10.13" shape="303.20,200.96 300.60,199.40 298.95,196.65 298.40,192.80"/>
    </edge>
    <edge id=":J15_8" function="internal">
        <lane id=":J15_8_0" index="0" speed="6.51" length="9.03" shape="301.60,192.80 301.95,195.25 303.00,197.00 304.75,198.05 307.20,198.40"/>
    </edge>
    <edge id=":J15_9" function="internal">
        <lane id=":J15_9_0" index="0" speed="13.89" length="14.40" shape="301.60,192.80 301.60,207.20"/>
    </edge>
    <edge id=":J15_10" function="internal">
        <lane id=":J15_10_0" index="0" speed="8.00" length="4.07" shape="301.60,192.80 301.05,196.65 300.96,196.80"/>
    </edge>
    <edge id=":J15_11" function="internal">
        <lane id=":J15_11_0" index="0" speed="7.80" length="4.07" shape="301.60,192.80 300.81,195.93 300.31,196.61"/>
    </edge>
    <edge id=":J15_22" function="internal">
        <lane id=":J15_22_0" index="0" speed="8.00" length="10.13" shape="300.96,196.80 299.40,199.40 296.65,201.05 292.80,201.60"/>
    </edge>
    <edge id=":J15_23" function="internal">
        <lane id=":J15_23_0" index="0" speed="7.80" length="9.37" shape="300.31,196.61 298.76,198.76 295.93,200.81 292.80,201.60"/>
    </edge>
    <edge id=":J15_12" function="internal">
        <lane id=":J15_12_0" index="0" speed="6.51" length="9.03" shape="292.80,198.40 295.25,198.05 297.00,197.00 298.05,195.25 298.40,192.80"/>
    </edge>
    <edge id=":J15_13" function="internal">
        <lane id=":J15_13_0" index="0" speed="13.89" length="14.40" shape="292.80,198.40 307.20,198.40"/>
    </edge>
    <edge id=":J15_14" function="internal">
        <lane id=":J15_14_0" index="0" speed="8.00" length="14.19" shape="292.80,198.40 296.65,198.95 299.40,200.60 301.05,203.35 301.60,207.20"/>
    </edge>
    <edge id=":J15_15" function="internal">
        <lane id=":J15_15_0" index="0" speed="3.24" length="3.20" shape="292.80,198.40 292.80,201.60"/>
    </edge>
    <edge id=":J15_16" function="internal">
        <lane id=":J15_16_0" index="0" speed="6.51" length="9.03" shape="292.80,198.40 295.25,198.05 297.00,197.00 298.05,195.25 298.40,192.80"/>
    </edge>
    <edge id=":J15_17" function="internal">
        <lane id=":J15_17_0" index="0" speed="13.89" length="14.40" shape="292.80,198.40 307.20,198.40"/>
    </edge>
    <edge id=":J15_18" function="internal">
        <lane id=":J15_18_0" index="0" speed="7.80" length="4.07" shape="292.80,198.40 295.93,199.19 296.61,199.69"/>
    </edge>
    <edge id=":J15_19" function="internal">
        <lane id=":J15_19_0" index="0" speed="3.24" length="1.60" shape="292.80,198.40 292.80,200.00"/>
    </edge>
    <edge id=":J15_24" function="internal">
        <lane id=":J15_24_0" index="0" speed="7.80" length="9.37" shape="296.61,199.69 298.76,201.24 300.81,204.07 301.60,207.20"/>
    </edge>
    <edge id=":J15_25" function="internal">
        <lane id=":J15_25_0" index="0" speed="3.24" length="1.60" shape="292.80,200.00 292.80,201.60"/>
    </edge>
    <edge id=":J16_0" function="internal">
        <lane id=":J16_0_0" index="0" speed="13.89" length="19.24" shape="309.42,292.84 305.10,296.67 300.89,299.41 296.79,301.05 292.80,301.60"/>
    </edge>
    <edge id=":J16_1" function="internal">
        <lane id=":J16_1_0" index="0" speed="7.42" length="6.93" shape="309.42,292.84 304.60,296.69 303.85,296.80"/>
    </edge>
    <edge id=":J16_6" function="internal">
        <lane id=":J16_6_0" index="0" speed="7.42" length="12.37" shape="303.85,296.80 301.16,297.21 299.09,294.41 298.40,288.27"/>
    </edge>
    <edge id=":J16_2" function="internal">
        <lane id=":J16_2_0" index="0" speed="5.47" length="9.74" shape="301.60,288.27 301.95,291.37 302.99,292.78 304.73,292.52 307.16,290.58"/>
    </edge>
    <edge id=":J16_3" function="internal">
        <lane id=":J16_3_0" index="0" speed="8.94" length="17.99" shape="301.60,288.27 301.05,294.10 299.40,298.27 296.65,300.77 292.80,301.60"/>
    </edge>
    <edge id=":J16_4" function="internal">
        <lane id=":J16_4_0" index="0" speed="7.65" length="12.89" shape="292.80,298.40 295.25,297.77 297.00,295.87 298.05,292.70 298.40,288.27"/>
    </edge>
    <edge id=":J16_5" function="internal">
        <lane id=":J16_5_0" index="0" speed="13.42" length="16.74" shape="292.80,298.40 296.15,297.91 299.66,296.44 303.33,294.00 307.16,290.58"/>
    </edge>
    <edge id=":J17_0" function="internal">
        <lane id=":J17_0_0" index="0" speed="7.65" length="12.89" shape="298.40,111.73 298.05,107.30 297.00,104.13 295.25,102.23 292.80,101.60"/>
    </edge>
    <edge id=":J17_1" function="internal">
        <lane id=":J17_1_0" index="0" speed="7.42" length="19.31" shape="298.40,111.73 299.09,105.59 301.16,102.79 304.60,103.31 309.42,107.16"/>
    </edge>
    <edge id=":J17_2" function="internal">
        <lane id=":J17_2_0" index="0" speed="5.47" length="9.74" shape="307.16,109.42 304.73,107.48 302.99,107.22 301.95,108.63 301.60,111.73"/>
    </edge>
    <edge id=":J17_3" function="internal">
        <lane id=":J17_3_0" index="0" speed="13.42" length="16.74" shape="307.16,109.42 303.33,106.00 299.66,103.56 296.15,102.09 292.80,101.60"/>
    </edge>
    <edge id=":J17_4" function="internal">
        <lane id=":J17_4_0" index="0" speed="13.89" length="19.24" shape="292.80,98.40 296.79,98.95 300.89,100.59 305.10,103.33 309.42,107.16"/>
    </edge>
    <edge id=":J17_5" function="internal">
        <lane id=":J17_5_0" index="0" speed="8.94" length="4.59" shape="292.80,98.40 296.65,99.23 297.13,99.67"/>
    </edge>
    <edge id=":J17_6" function="internal">
        <lane id=":J17_6_0" index="0" speed="8.94" length="13.40" shape="297.13,99.67 299.40,101.73 301.05,105.90 301.60,111.73"/>
    </edge>
    <edge id=":J18_0" function="internal">
        <lane id=":J18_0_0" index="0" speed="9.73" length="21.49" shape="392.84,190.58 396.37,195.29 397.55,200.00 396.37,204.71 392.84,209.42"/>
    </edge>
    <edge id=":J18_1" function="internal">
        <lane id=":J18_1_0" index="0" speed="7.42" length="9.49" shape="392.84,190.58 396.69,195.40 397.19,198.68"/>
    </edge>
    <edge id=":J18_6" function="internal">
        <lane id=":J18_6_0" index="0" speed="7.42" length="9.82" shape="397.19,198.68 397.21,198.84 394.41,200.91 388.27,201.60"/>
    </edge>
    <edge id=":J18_2" function="internal">
        <lane id=":J18_2_0" index="0" speed="5.47" length="9.74" shape="388.27,198.40 391.37,198.05 392.78,197.01 392.52,195.27 390.58,192.84"/>
    </edge>
    <edge id=":J18_3" function="internal">
        <lane id=":J18_3_0" index="0" speed="7.42" length="19.31" shape="388.27,198.40 394.41,199.09 397.21,201.16 396.69,204.60 392.84,209.42"/>
    </edge>
    <edge id=":J18_4" function="internal">
        <lane id=":J18_4_0" index="0" speed="5.47" length="9.74" shape="390.58,207.16 392.52,204.73 392.78,202.99 391.37,201.95 388.27,201.60"/>
    </edge>
    <edge id=":J18_5" function="internal">
        <lane id=":J18_5_0" index="0" speed="8.54" length="16.33" shape="390.58,207.16 393.26,203.58 394.16,200.00 393.26,196.42 390.58,192.84"/>
    </edge>

    <edge id="-E10" from="J13" to="J11" priority="-1">
        <lane id="-E10_0" index="0" speed="13.89" length="81.07" shape="11.73,198.40 92.80,198.40"/>
    </edge>
    <edge id="-E12" from="J15" to="J12" priority="-1">
        <lane id="-E12_0" index="0" speed="13.89" length="92.80" shape="292.80,201.60 200.00,201.60"/>
    </edge>
    <edge id="-E13" from="J16" to="J15" priority="-1">
        <lane id="-E13_0" index="0" speed="13.89" length="81.07" shape="298.40,288.27 298.40,207.20"/>
    </edge>
    <edge id="-E14" from="J17" to="J15" priority="-1">
        <lane id="-E14_0" index="0" speed="13.89" length="81.07" shape="301.60,111.73 301.60,192.80"/>
    </edge>
    <edge id="-E15" from="J18" to="J15" priority="-1">
        <lane id="-E15_0" index="0" speed="13.89" length="81.07" shape="388.27,201.60 307.20,201.60"/>
    </edge>
    <edge id="-E16" from="J15" to="J11" priority="-1">
        <lane id="-E16_0" index="0" speed="13.89" length="185.60" shape="292.80,201.60 107.20,201.60"/>
    </edge>
    <edge id="-E17" from="J11" to="J14" priority="-1">
        <lane id="-E17_0" index="0" speed="13.89" length="81.07" shape="98.40,192.80 98.40,111.73"/>
    </edge>
    <edge id="-E18" from="J17" to="J14" priority="-1">
        <lane id="-E18_0" index="0" speed="13.89" length="185.60" shape="292.80,101.60 107.20,101.60"/>
    </edge>
    <edge id="-E19" from="J16" to="J10" priority="-1">
        <lane id="-E19_0" index="0" speed="13.89" length="185.60" shape="292.80,301.60 107.20,301.60"/>
    </edge>
    <edge id="-E20" from="J13" to="J10" priority="-1">
        <lane id="-E20_0" index="0" speed="13.89" length="117.97" shape="9.42,207.16 92.84,290.58"/>
    </edge>
    <edge id="-E21" from="J14" to="J13" priority="-1">
        <lane id="-E21_0" index="0" speed="13.89" length="117.97" shape="92.84,109.42 9.42,192.84"/>
    </edge>
    <edge id="-E23" from="J18" to="J17" priority="-1">
        <lane id="-E23_0" index="0" speed="13.89" length="117.97" shape="390.58,192.84 307.16,109.42"/>
    </edge>
    <edge id="-E24" from="J18" to="J16" priority="-1">
        <lane id="-E24_0" index="0" speed="13.89" length="117.97" shape="392.84,209.42 309.42,292.84"/>
    </edge>
    <edge id="-E8" from="J11" to="J10" priority="-1">
        <lane id="-E8_0" index="0" speed="13.89" length="81.07" shape="101.60,207.20 101.60,288.27"/>
    </edge>
    <edge id="-E9" from="J12" to="J11" priority="-1">
        <lane id="-E9_0" index="0" speed="13.89" length="92.80" shape="200.00,201.60 107.20,201.60"/>
    </edge>
    <edge id="E10" from="J11" to="J13" priority="-1">
        <lane id="E10_0" index="0" speed="13.89" length="81.07" shape="92.80,201.60 11.73,201.60"/>
    </edge>
    <edge id="E12" from="J12" to="J15" priority="-1">
        <lane id="E12_0" index="0" speed="13.89" length="92.80" shape="200.00,198.40 292.80,198.40"/>
    </edge>
    <edge id="E13" from="J15" to="J16" priority="-1">
        <lane id="E13_0" index="0" speed="13.89" length="81.07" shape="301.60,207.20 301.60,288.27"/>
    </edge>
    <edge id="E14" from="J15" to="J17" priority="-1">
        <lane id="E14_0" index="0" speed="13.89" length="81.07" shape="298.40,192.80 298.40,111.73"/>
    </edge>
    <edge id="E15" from="J15" to="J18" priority="-1">
        <lane id="E15_0" index="0" speed="13.89" length="81.07" shape="307.20,198.40 388.27,198.40"/>
    </edge>
    <edge id="E16" from="J11" to="J15" priority="-1">
        <lane id="E16_0" index="0" speed="13.89" length="185.60" shape="107.20,198.40 292.80,198.40"/>
    </edge>
    <edge id="E17" from="J14" to="J11" priority="-1">
        <lane id="E17_0" index="0" speed="13.89" length="81.07" shape="101.60,111.73 101.60,192.80"/>
    </edge>
    <edge id="E18" from="J14" to="J17" priority="-1">
        <lane id="E18_0" index="0" speed="13.89" length="185.60" shape="107.20,98.40 292.80,98.40"/>
    </edge>
    <edge id="E19" from="J10" to="J16" priority="-1">
        <lane id="E19_0" index="0" speed="13.89" length="185.60" shape="107.20,298.40 292.80,298.40"/>
    </edge>
    <edge id="E20" from="J10" to="J13" priority="-1">
        <lane id="E20_0" index="0" speed="13.89" length="117.97" shape="90.58,292.84 7.16,209.42"/>
    </edge>
    <edge id="E21" from="J13" to="J14" priority="-1">
        <lane id="E21_0" index="0" speed="13.89" length="117.97" shape="7.16,190.58 90.58,107.16"/>
    </edge>
    <edge id="E23" from="J17" to="J18" priority="-1">
        <lane id="E23_0" index="0" speed="13.89" length="117.97" shape="309.42,107.16 392.84,190.58"/>
    </edge>
    <edge id="E24" from="J16" to="J18" priority="-1">
        <lane id="E24_0" index="0" speed="13.89" length="117.97" shape="307.16,290.58 390.58,207.16"/>
    </edge>
    <edge id="E8" from="J10" to="J11" priority="-1">
        <lane id="E8_0" index="0" speed="13.89" length="81.07" shape="98.40,288.27 98.40,207.20"/>
    </edge>
    <edge id="E9" from="J11" to="J12" priority="-1">
        <lane id="E9_0" index="0" speed="13.89" length="92.80" shape="107.20,198.40 200.00,198.40"/>
    </edge>

    <tlLogic id="J11" type="static" programID="0" offset="0">
        <phase duration="27" state="GGggrrrrrrrrGGGgrrrr"/>
        <phase duration="3"  state="yyyyrrrrrrrryyyyrrrr"/>
        <phase duration="27" state="rrrrrrrrgGggrrrrGGgg"/>
        <phase duration="3"  state="rrrrrrrryyygrrrryyyy"/>
        <phase duration="27" state="rrrrGGGGrrrGrrrrrrrr"/>
        <phase duration="3"  state="rrrryyyyrrryrrrrrrrr"/>
    </tlLogic>
    <tlLogic id="J15" type="static" programID="0" offset="0">
        <phase duration="27" state="GGGgrrrrGGggrrrrrrrr"/>
        <phase duration="3"  state="yyyyrrrryyyyrrrrrrrr"/>
        <phase duration="27" state="rrrrGGggrrrrrrrrgGgg"/>
        <phase duration="3"  state="rrrryyyyrrrrrrrryyyg"/>
        <phase duration="27" state="rrrrrrrrrrrrGGGGrrrG"/>
        <phase duration="3"  state="rrrrrrrrrrrryyyyrrry"/>
    </tlLogic>

    <junction id="J1" type="dead_end" x="-100.00" y="100.00" incLanes="" intLanes="" shape="-100.00,100.00"/>
    <junction id="J10" type="priority" x="100.00" y="300.00" incLanes="-E19_0 -E8_0 -E20_0" intLanes=":J10_0_0 :J10_6_0 :J10_2_0 :J10_3_0 :J10_4_0 :J10_5_0" shape="107.20,303.20 107.20,296.80 104.98,295.85 104.20,294.67 103.64,293.01 103.31,290.88 103.20,288.27 96.80,288.27 96.49,290.18 96.09,290.57 95.54,290.57 94.84,290.20 93.97,289.45 89.45,293.97 92.52,297.11 94.97,299.51 97.22,301.24 99.72,302.38 102.90,303.01">
        <request index="0" response="000000" foes="001000" cont="0"/>
        <request index="1" response="110000" foes="111000" cont="1"/>
        <request index="2" response="100000" foes="100000" cont="0"/>
        <request index="3" response="100011" foes="100011" cont="0"/>
        <request index="4" response="000000" foes="000010" cont="0"/>
        <request index="5" response="000000" foes="001110" cont="0"/>
    </junction>
    <junction id="J11" type="traffic_light" x="100.00" y="200.00" incLanes="E8_0 -E16_0 -E9_0 E17_0 -E10_0" intLanes=":J11_0_0 :J11_1_0 :J11_20_0 :J11_21_0 :J11_4_0 :J11_5_0 :J11_6_0 :J11_7_0 :J11_8_0 :J11_9_0 :J11_22_0 :J11_23_0 :J11_12_0 :J11_13_0 :J11_14_0 :J11_24_0 :J11_16_0 :J11_17_0 :J11_18_0 :J11_25_0" shape="96.80,207.20 103.20,207.20 103.64,204.98 104.20,204.20 104.98,203.64 105.98,203.31 107.20,203.20 107.20,196.80 104.98,196.36 104.20,195.80 103.64,195.02 103.31,194.02 103.20,192.80 96.80,192.80 96.36,195.02 95.80,195.80 95.02,196.36 94.02,196.69 92.80,196.80 92.80,203.20 95.02,203.64 95.80,204.20 96.36,204.98 96.69,205.98">
        <request index="0"  response="00000000000000000000" foes="00001000001000100000" cont="0"/>
        <request index="1"  response="10000000010000000000" foes="11111000011001100000" cont="0"/>
        <request index="2"  response="10000111010000000000" foes="11101111111011100000" cont="1"/>
        <request index="3"  response="10000110100000000000" foes="11000110110111100000" cont="1"/>
        <request index="4"  response="10000100000000000000" foes="10000100000100000000" cont="0"/>
        <request index="5"  response="10001100000000001111" foes="10001100001100001111" cont="0"/>
        <request index="6"  response="01111100111000001110" foes="11111100111100001110" cont="0"/>
        <request index="7"  response="01100011011000001100" foes="01100011011100001100" cont="0"/>
        <request index="8"  response="01000110000011111000" foes="11000110000011111000" cont="0"/>
        <request index="9"  response="00001110000000100111" foes="11001110000011100111" cont="0"/>
        <request index="10" response="00111110000011001110" foes="00111110000011001110" cont="1"/>
        <request index="11" response="01000010000000001100" foes="01000010000001001100" cont="1"/>
        <request index="12" response="00000000000000000000" foes="00100000000010000100" cont="0"/>
        <request index="13" response="00000000110000000000" foes="01100000111110001100" cont="0"/>
        <request index="14" response="10000000010000000000" foes="11100000011101111100" cont="0"/>
        <request index="15" response="10000000010000000111" foes="11100000011001100111" cont="1"/>
        <request index="16" response="00000000000000000010" foes="00000000010001000010" cont="0"/>
        <request index="17" response="00001111000000000110" foes="00001111010011000110" cont="0"/>
        <request index="18" response="00001110001000001110" foes="00001110101111001110" cont="0"/>
        <request index="19" response="00001100001101111110" foes="00001100001101111110" cont="1"/>
    </junction>
    <junction id="J12" type="priority" x="200.00" y="200.00" incLanes="-E12_0 E9_0" intLanes=":J12_0_0 :J12_1_0" shape="200.00,203.20 200.00,196.80 200.00,203.20">
        <request index="0" response="00" foes="00" cont="0"/>
        <request index="1" response="00" foes="00" cont="0"/>
    </junction>
    <junction id="J13" type="priority" x="0.00" y="200.00" incLanes="E20_0 E10_0 -E21_0" intLanes=":J13_0_0 :J13_6_0 :J13_2_0 :J13_3_0 :J13_4_0 :J13_5_0" shape="6.03,210.55 10.55,206.03 9.43,204.46 9.43,203.91 9.82,203.51 10.58,203.28 11.73,203.20 11.73,196.80 9.82,196.49 9.43,196.09 9.43,195.54 9.80,194.84 10.55,193.97 6.03,189.45 3.10,192.96 1.34,196.48 0.75,200.00 1.34,203.52 3.10,207.04">
        <request index="0" response="000000" foes="001000" cont="0"/>
        <request index="1" response="110000" foes="111000" cont="1"/>
        <request index="2" response="100000" foes="100000" cont="0"/>
        <request index="3" response="100011" foes="100011" cont="0"/>
        <request index="4" response="000000" foes="000010" cont="0"/>
        <request index="5" response="000000" foes="001110" cont="0"/>
    </junction>